<?xml version="1.0" encoding="UTF-8"?>

<!-- generated on 2026-05-20 14:37:15 by Eclipse SUMO netconvert Version 1.23.1
<netconvertConfiguration xmlns:xsi="http://www.w3.org/2001/XMLSchema-instance" xsi:noNamespaceSchemaLocation="http://sumo.dlr.de/xsd/netconvertConfiguration.xsd">

    <input>
        <osm-files value="D:\vscodeworkspace\scenarios\beijing_g6_demo\beijing_g6_bbox.osm.xml"/>
    </input>

    <output>
        <output-file value="D:\vscodeworkspace\scenarios\beijing_g6_demo\highway.net.xml"/>
    </output>

    <projection>
        <proj.utm value="true"/>
    </projection>

    <processing>
        <geometry.remove value="true"/>
    </processing>

    <tls_building>
        <tls.discard-simple value="true"/>
    </tls_building>

    <ramp_guessing>
        <ramps.guess value="true"/>
    </ramp_guessing>

    <edge_removal>
        <keep-edges.by-type value="highway.motorway,highway.motorway_link,highway.trunk,highway.trunk_link"/>
    </edge_removal>

    <junctions>
        <junctions.join value="true"/>
    </junctions>

</netconvertConfiguration>
-->

<net version="1.20" junctionCornerDetail="5" limitTurnSpeed="5.50" xmlns:xsi="http://www.w3.org/2001/XMLSchema-instance" xsi:noNamespaceSchemaLocation="http://sumo.dlr.de/xsd/net_file.xsd">

    <location netOffset="-443734.75,-4426831.20" convBoundary="0.00,0.00,3100.35,3984.92" origBoundary="116.340636,39.989950,116.376976,40.025707" projParameter="+proj=utm +zone=50 +ellps=WGS84 +datum=WGS84 +units=m +no_defs"/>

    <type id="highway.motorway" priority="14" numLanes="2" speed="39.44" allow="private emergency authority army vip passenger hov taxi bus coach delivery truck trailer motorcycle evehicle custom1 custom2" oneway="1"/>
    <type id="highway.motorway_link" priority="9" numLanes="1" speed="22.22" allow="private emergency authority army vip passenger hov taxi bus coach delivery truck trailer motorcycle evehicle custom1 custom2" oneway="1"/>

    <edge id=":116920054#1-AddedOnRampNode_0" function="internal">
        <lane id=":116920054#1-AddedOnRampNode_0_0" index="0" allow="private emergency authority army vip passenger hov taxi bus coach delivery truck trailer motorcycle evehicle custom1 custom2" speed="22.22" length="8.00" shape="797.69,3156.17 801.68,3149.23"/>
    </edge>
    <edge id=":116920069#2-AddedOnRampNode_0" function="internal">
        <lane id=":116920069#2-AddedOnRampNode_0_0" index="0" allow="private emergency authority army vip passenger hov taxi bus coach delivery truck trailer motorcycle evehicle custom1 custom2" speed="22.22" length="8.00" shape="1248.22,3510.68 1256.22,3510.74"/>
    </edge>
    <edge id=":116920076#1-AddedOnRampNode_0" function="internal">
        <lane id=":116920076#1-AddedOnRampNode_0_0" index="0" allow="private emergency authority army vip passenger hov taxi bus coach delivery truck trailer motorcycle evehicle custom1 custom2" speed="39.44" length="8.00" shape="435.16,3556.73 427.17,3556.82"/>
        <lane id=":116920076#1-AddedOnRampNode_0_1" index="1" allow="private emergency authority army vip passenger hov taxi bus coach delivery truck trailer motorcycle evehicle custom1 custom2" speed="39.44" length="8.00" shape="435.13,3553.53 427.13,3553.62"/>
        <lane id=":116920076#1-AddedOnRampNode_0_2" index="2" allow="private emergency authority army vip passenger hov taxi bus coach delivery truck trailer motorcycle evehicle custom1 custom2" speed="39.44" length="8.00" shape="435.09,3550.33 427.09,3550.42"/>
    </edge>
    <edge id=":11777863779_0" function="internal">
        <lane id=":11777863779_0_0" index="0" allow="private emergency authority army vip passenger hov taxi bus coach delivery truck trailer motorcycle evehicle custom1 custom2" speed="39.44" length="2.97" shape="2201.55,743.33 2200.07,745.89"/>
        <lane id=":11777863779_0_1" index="1" allow="private emergency authority army vip passenger hov taxi bus coach delivery truck trailer motorcycle evehicle custom1 custom2" speed="39.44" length="2.97" shape="2198.79,741.72 2197.30,744.29"/>
        <lane id=":11777863779_0_2" index="2" allow="private emergency authority army vip passenger hov taxi bus coach delivery truck trailer motorcycle evehicle custom1 custom2" speed="39.44" length="2.97" shape="2196.03,740.10 2194.53,742.69"/>
    </edge>
    <edge id=":11777863779_3" function="internal">
        <lane id=":11777863779_3_0" index="0" allow="private emergency authority army vip passenger hov taxi bus coach delivery truck trailer motorcycle evehicle custom1 custom2" speed="30.83" length="3.01" shape="2203.78,744.64 2203.57,745.51 2203.45,746.12 2203.25,746.70 2202.85,747.49"/>
    </edge>
    <edge id=":1317051476_0" function="internal">
        <lane id=":1317051476_0_0" index="0" allow="private emergency authority army vip passenger hov taxi bus coach delivery truck trailer motorcycle evehicle custom1 custom2" speed="30.83" length="3.00" shape="1297.62,3511.08 1300.62,3511.05"/>
    </edge>
    <edge id=":1317051476_1" function="internal">
        <lane id=":1317051476_1_0" index="0" allow="private emergency authority army vip passenger hov taxi bus coach delivery truck trailer motorcycle evehicle custom1 custom2" speed="39.44" length="3.00" shape="1297.71,3514.33 1300.71,3514.25"/>
        <lane id=":1317051476_1_1" index="1" allow="private emergency authority army vip passenger hov taxi bus coach delivery truck trailer motorcycle evehicle custom1 custom2" speed="39.44" length="3.00" shape="1297.79,3517.53 1300.79,3517.45"/>
        <lane id=":1317051476_1_2" index="2" allow="private emergency authority army vip passenger hov taxi bus coach delivery truck trailer motorcycle evehicle custom1 custom2" speed="39.44" length="3.00" shape="1297.88,3520.73 1300.87,3520.65"/>
    </edge>
    <edge id=":1317051575_0" function="internal">
        <lane id=":1317051575_0_0" index="0" allow="private emergency authority army vip passenger hov taxi bus coach delivery truck trailer motorcycle evehicle custom1 custom2" speed="22.22" length="1.33" shape="966.24,3509.03 966.63,3509.12 966.89,3509.17 967.16,3509.19 967.56,3509.20"/>
    </edge>
    <edge id=":1317051575_1" function="internal">
        <lane id=":1317051575_1_0" index="0" allow="private emergency authority army vip passenger hov taxi bus coach delivery truck trailer motorcycle evehicle custom1 custom2" speed="22.22" length="2.01" shape="965.43,3512.12 966.01,3512.26 966.41,3512.33 966.82,3512.38 967.41,3512.46"/>
    </edge>
    <edge id=":1317051607_0" function="internal">
        <lane id=":1317051607_0_0" index="0" allow="private emergency authority army vip passenger hov taxi bus coach delivery truck trailer motorcycle evehicle custom1 custom2" speed="30.83" length="35.76" shape="1347.98,2193.55 1351.90,2190.04 1357.83,2184.70 1364.71,2177.12 1371.48,2166.88"/>
    </edge>
    <edge id=":1317051607_1" function="internal">
        <lane id=":1317051607_1_0" index="0" allow="private emergency authority army vip passenger hov taxi bus coach delivery truck trailer motorcycle evehicle custom1 custom2" speed="39.44" length="35.59" shape="1351.29,2195.99 1356.96,2187.14 1361.51,2181.50 1365.99,2175.83 1371.48,2166.88"/>
        <lane id=":1317051607_1_1" index="1" allow="private emergency authority army vip passenger hov taxi bus coach delivery truck trailer motorcycle evehicle custom1 custom2" speed="39.44" length="35.59" shape="1354.07,2197.58 1359.75,2188.71 1364.30,2183.06 1368.80,2177.37 1374.29,2168.40"/>
        <lane id=":1317051607_1_2" index="2" allow="private emergency authority army vip passenger hov taxi bus coach delivery truck trailer motorcycle evehicle custom1 custom2" speed="39.44" length="35.59" shape="1356.85,2199.16 1362.54,2190.27 1367.10,2184.61 1371.60,2178.92 1377.10,2169.93"/>
        <lane id=":1317051607_1_3" index="3" allow="private emergency authority army vip passenger hov taxi bus coach delivery truck trailer motorcycle evehicle custom1 custom2" speed="39.44" length="35.59" shape="1359.63,2200.75 1365.33,2191.84 1369.90,2186.17 1374.40,2180.46 1379.91,2171.45"/>
    </edge>
    <edge id=":1317051633_0" function="internal">
        <lane id=":1317051633_0_0" index="0" allow="private emergency authority army vip passenger hov taxi bus coach delivery truck trailer motorcycle evehicle custom1 custom2" speed="22.22" length="3.16" shape="1151.39,3502.17 1152.30,3502.39 1152.93,3502.51 1153.57,3502.61 1154.50,3502.74"/>
    </edge>
    <edge id=":1317051633_1" function="internal">
        <lane id=":1317051633_1_0" index="0" allow="private emergency authority army vip passenger hov taxi bus coach delivery truck trailer motorcycle evehicle custom1 custom2" speed="22.22" length="3.14" shape="1150.96,3505.62 1154.08,3505.91"/>
    </edge>
    <edge id=":1317051684_0" function="internal">
        <lane id=":1317051684_0_0" index="0" allow="private emergency authority army vip passenger hov taxi bus coach delivery truck trailer motorcycle evehicle custom1 custom2" speed="22.22" length="5.29" shape="1186.33,2436.83 1186.70,2435.31 1187.06,2434.30 1187.52,2433.33 1188.20,2431.91"/>
    </edge>
    <edge id=":1317051684_1" function="internal">
        <lane id=":1317051684_1_0" index="0" allow="private emergency authority army vip passenger hov taxi bus coach delivery truck trailer motorcycle evehicle custom1 custom2" speed="22.22" length="4.48" shape="1189.46,2437.51 1189.77,2436.22 1190.08,2435.37 1190.50,2434.55 1191.14,2433.39"/>
    </edge>
    <edge id=":1317051695_0" function="internal">
        <lane id=":1317051695_0_0" index="0" allow="private emergency authority army vip passenger hov taxi bus coach delivery truck trailer motorcycle evehicle custom1 custom2" speed="22.22" length="3.10" shape="414.50,3485.27 417.29,3483.91"/>
    </edge>
    <edge id=":1317051695_1" function="internal">
        <lane id=":1317051695_1_0" index="0" allow="private emergency authority army vip passenger hov taxi bus coach delivery truck trailer motorcycle evehicle custom1 custom2" speed="22.22" length="3.07" shape="415.82,3488.19 418.63,3486.96"/>
    </edge>
    <edge id=":1317051699_0" function="internal">
        <lane id=":1317051699_0_0" index="0" allow="private emergency authority army vip passenger hov taxi bus coach delivery truck trailer motorcycle evehicle custom1 custom2" speed="22.22" length="3.07" shape="746.25,3239.10 747.85,3236.47"/>
    </edge>
    <edge id=":1317051699_1" function="internal">
        <lane id=":1317051699_1_0" index="0" allow="private emergency authority army vip passenger hov taxi bus coach delivery truck trailer motorcycle evehicle custom1 custom2" speed="22.22" length="3.08" shape="749.09,3240.73 750.62,3238.07"/>
    </edge>
    <edge id=":1346457732_0" function="internal">
        <lane id=":1346457732_0_0" index="0" allow="private emergency authority army vip passenger hov taxi bus coach delivery truck trailer motorcycle evehicle custom1 custom2" speed="30.83" length="3.07" shape="1885.46,3489.98 1888.53,3489.80"/>
    </edge>
    <edge id=":1346457732_1" function="internal">
        <lane id=":1346457732_1_0" index="0" allow="private emergency authority army vip passenger hov taxi bus coach delivery truck trailer motorcycle evehicle custom1 custom2" speed="39.44" length="3.08" shape="1885.58,3493.18 1888.73,3493.09"/>
        <lane id=":1346457732_1_1" index="1" allow="private emergency authority army vip passenger hov taxi bus coach delivery truck trailer motorcycle evehicle custom1 custom2" speed="39.44" length="3.08" shape="1885.70,3496.38 1888.78,3496.29"/>
        <lane id=":1346457732_1_2" index="2" allow="private emergency authority army vip passenger hov taxi bus coach delivery truck trailer motorcycle evehicle custom1 custom2" speed="39.44" length="3.08" shape="1885.82,3499.57 1888.84,3499.49"/>
    </edge>
    <edge id=":1346457738_0" function="internal">
        <lane id=":1346457738_0_0" index="0" allow="private emergency authority army vip passenger hov taxi bus coach delivery truck trailer motorcycle evehicle custom1 custom2" speed="30.83" length="3.16" shape="1576.52,3501.19 1577.46,3501.25 1578.10,3501.28 1578.74,3501.27 1579.68,3501.24"/>
    </edge>
    <edge id=":1346457738_1" function="internal">
        <lane id=":1346457738_1_0" index="0" allow="private emergency authority army vip passenger hov taxi bus coach delivery truck trailer motorcycle evehicle custom1 custom2" speed="39.44" length="3.17" shape="1576.63,3504.55 1579.80,3504.44"/>
        <lane id=":1346457738_1_1" index="1" allow="private emergency authority army vip passenger hov taxi bus coach delivery truck trailer motorcycle evehicle custom1 custom2" speed="39.44" length="3.17" shape="1576.74,3507.75 1579.91,3507.63"/>
        <lane id=":1346457738_1_2" index="2" allow="private emergency authority army vip passenger hov taxi bus coach delivery truck trailer motorcycle evehicle custom1 custom2" speed="39.44" length="3.17" shape="1576.86,3510.95 1580.03,3510.83"/>
    </edge>
    <edge id=":1346457745_0" function="internal">
        <lane id=":1346457745_0_0" index="0" allow="private emergency authority army vip passenger hov taxi bus coach delivery truck trailer motorcycle evehicle custom1 custom2" speed="30.83" length="3.24" shape="1308.20,3510.85 1309.16,3510.82 1309.82,3510.78 1310.47,3510.69 1311.42,3510.52"/>
    </edge>
    <edge id=":1346457745_1" function="internal">
        <lane id=":1346457745_1_0" index="0" allow="private emergency authority army vip passenger hov taxi bus coach delivery truck trailer motorcycle evehicle custom1 custom2" speed="39.44" length="3.30" shape="1308.28,3514.05 1311.55,3513.95"/>
        <lane id=":1346457745_1_1" index="1" allow="private emergency authority army vip passenger hov taxi bus coach delivery truck trailer motorcycle evehicle custom1 custom2" speed="39.44" length="3.30" shape="1308.37,3517.25 1311.66,3517.15"/>
        <lane id=":1346457745_1_2" index="2" allow="private emergency authority army vip passenger hov taxi bus coach delivery truck trailer motorcycle evehicle custom1 custom2" speed="39.44" length="3.30" shape="1308.45,3520.45 1311.78,3520.35"/>
    </edge>
    <edge id=":152429678#1-AddedOffRampNode_0" function="internal">
        <lane id=":152429678#1-AddedOffRampNode_0_0" index="0" allow="private emergency authority army vip passenger hov taxi bus coach delivery truck trailer motorcycle evehicle custom1 custom2" speed="39.44" length="8.20" shape="1144.54,3538.17 1142.09,3538.73 1140.58,3539.86 1139.07,3541.00 1136.62,3541.55"/>
        <lane id=":152429678#1-AddedOffRampNode_0_1" index="1" allow="private emergency authority army vip passenger hov taxi bus coach delivery truck trailer motorcycle evehicle custom1 custom2" speed="39.44" length="8.20" shape="1144.54,3538.17 1136.55,3538.35"/>
        <lane id=":152429678#1-AddedOffRampNode_0_2" index="2" allow="private emergency authority army vip passenger hov taxi bus coach delivery truck trailer motorcycle evehicle custom1 custom2" speed="39.44" length="8.20" shape="1144.47,3534.98 1136.47,3535.15"/>
        <lane id=":152429678#1-AddedOffRampNode_0_3" index="3" allow="private emergency authority army vip passenger hov taxi bus coach delivery truck trailer motorcycle evehicle custom1 custom2" speed="39.44" length="8.20" shape="1144.40,3531.78 1136.40,3531.96"/>
    </edge>
    <edge id=":152429678#1-AddedOnRampNode_0" function="internal">
        <lane id=":152429678#1-AddedOnRampNode_0_0" index="0" allow="private emergency authority army vip passenger hov taxi bus coach delivery truck trailer motorcycle evehicle custom1 custom2" speed="39.44" length="8.00" shape="1819.36,3521.72 1811.37,3521.92"/>
        <lane id=":152429678#1-AddedOnRampNode_0_1" index="1" allow="private emergency authority army vip passenger hov taxi bus coach delivery truck trailer motorcycle evehicle custom1 custom2" speed="39.44" length="8.00" shape="1819.29,3518.52 1811.29,3518.72"/>
        <lane id=":152429678#1-AddedOnRampNode_0_2" index="2" allow="private emergency authority army vip passenger hov taxi bus coach delivery truck trailer motorcycle evehicle custom1 custom2" speed="39.44" length="8.00" shape="1819.21,3515.32 1811.21,3515.52"/>
    </edge>
    <edge id=":1652481972_0" function="internal">
        <lane id=":1652481972_0_0" index="0" allow="private emergency authority army vip passenger hov taxi bus coach delivery truck trailer motorcycle evehicle custom1 custom2" speed="30.83" length="3.17" shape="1916.99,3522.71 1916.06,3522.63 1915.41,3522.60 1914.77,3522.59 1913.83,3522.61"/>
    </edge>
    <edge id=":1652481972_1" function="internal">
        <lane id=":1652481972_1_0" index="0" allow="private emergency authority army vip passenger hov taxi bus coach delivery truck trailer motorcycle evehicle custom1 custom2" speed="39.44" length="3.15" shape="1916.91,3519.33 1913.75,3519.41"/>
        <lane id=":1652481972_1_1" index="1" allow="private emergency authority army vip passenger hov taxi bus coach delivery truck trailer motorcycle evehicle custom1 custom2" speed="39.44" length="3.15" shape="1916.82,3516.13 1913.67,3516.22"/>
        <lane id=":1652481972_1_2" index="2" allow="private emergency authority army vip passenger hov taxi bus coach delivery truck trailer motorcycle evehicle custom1 custom2" speed="39.44" length="3.15" shape="1916.72,3512.93 1913.59,3513.02"/>
    </edge>
    <edge id=":1734208345_0" function="internal">
        <lane id=":1734208345_0_0" index="0" allow="private emergency authority army vip passenger hov taxi bus coach delivery truck trailer motorcycle evehicle custom1 custom2" speed="30.83" length="3.21" shape="1763.78,1462.06 1764.24,1461.23 1764.54,1460.65 1764.80,1460.05 1765.16,1459.17"/>
    </edge>
    <edge id=":1734208345_1" function="internal">
        <lane id=":1734208345_1_0" index="0" allow="private emergency authority army vip passenger hov taxi bus coach delivery truck trailer motorcycle evehicle custom1 custom2" speed="39.44" length="3.23" shape="1766.57,1463.62 1768.14,1460.81"/>
        <lane id=":1734208345_1_1" index="1" allow="private emergency authority army vip passenger hov taxi bus coach delivery truck trailer motorcycle evehicle custom1 custom2" speed="39.44" length="3.23" shape="1769.36,1465.19 1770.94,1462.37"/>
        <lane id=":1734208345_1_2" index="2" allow="private emergency authority army vip passenger hov taxi bus coach delivery truck trailer motorcycle evehicle custom1 custom2" speed="39.44" length="3.23" shape="1772.15,1466.75 1773.73,1463.92"/>
    </edge>
    <edge id=":1734208348_0" function="internal">
        <lane id=":1734208348_0_0" index="0" allow="private emergency authority army vip passenger hov taxi bus coach delivery truck trailer motorcycle evehicle custom1 custom2" speed="30.83" length="3.31" shape="1728.76,1523.89 1729.39,1523.14 1729.81,1522.61 1730.17,1522.04 1730.65,1521.18"/>
    </edge>
    <edge id=":1734208348_1" function="internal">
        <lane id=":1734208348_1_0" index="0" allow="private emergency authority army vip passenger hov taxi bus coach delivery truck trailer motorcycle evehicle custom1 custom2" speed="39.44" length="3.36" shape="1731.80,1525.65 1733.44,1522.75"/>
        <lane id=":1734208348_1_1" index="1" allow="private emergency authority army vip passenger hov taxi bus coach delivery truck trailer motorcycle evehicle custom1 custom2" speed="39.44" length="3.36" shape="1734.58,1527.24 1736.23,1524.31"/>
        <lane id=":1734208348_1_2" index="2" allow="private emergency authority army vip passenger hov taxi bus coach delivery truck trailer motorcycle evehicle custom1 custom2" speed="39.44" length="3.36" shape="1737.36,1528.83 1739.03,1525.88"/>
    </edge>
    <edge id=":1734208359_0" function="internal">
        <lane id=":1734208359_0_0" index="0" allow="private emergency authority army vip passenger hov taxi bus coach delivery truck trailer motorcycle evehicle custom1 custom2" speed="30.83" length="17.74" shape="1733.03,1573.76 1730.65,1578.99 1729.46,1583.31 1728.87,1587.11 1728.31,1590.74"/>
    </edge>
    <edge id=":1734208359_1" function="internal">
        <lane id=":1734208359_1_0" index="0" allow="private emergency authority army vip passenger hov taxi bus coach delivery truck trailer motorcycle evehicle custom1 custom2" speed="39.44" length="17.74" shape="1733.03,1573.76 1724.17,1589.19"/>
        <lane id=":1734208359_1_1" index="1" allow="private emergency authority army vip passenger hov taxi bus coach delivery truck trailer motorcycle evehicle custom1 custom2" speed="39.44" length="17.74" shape="1730.23,1572.23 1721.39,1587.61"/>
        <lane id=":1734208359_1_2" index="2" allow="private emergency authority army vip passenger hov taxi bus coach delivery truck trailer motorcycle evehicle custom1 custom2" speed="39.44" length="17.74" shape="1727.42,1570.69 1718.61,1586.03"/>
    </edge>
    <edge id=":1734208391_0" function="internal">
        <lane id=":1734208391_0_0" index="0" allow="private emergency authority army vip passenger hov taxi bus coach delivery truck trailer motorcycle evehicle custom1 custom2" speed="30.83" length="3.28" shape="1321.58,2252.11 1322.21,2251.37 1322.62,2250.84 1322.99,2250.29 1323.49,2249.45"/>
    </edge>
    <edge id=":1734208391_1" function="internal">
        <lane id=":1734208391_1_0" index="0" allow="private emergency authority army vip passenger hov taxi bus coach delivery truck trailer motorcycle evehicle custom1 custom2" speed="39.44" length="3.28" shape="1324.56,2253.91 1326.24,2251.09"/>
        <lane id=":1734208391_1_1" index="1" allow="private emergency authority army vip passenger hov taxi bus coach delivery truck trailer motorcycle evehicle custom1 custom2" speed="39.44" length="3.28" shape="1327.32,2255.55 1328.99,2252.72"/>
        <lane id=":1734208391_1_2" index="2" allow="private emergency authority army vip passenger hov taxi bus coach delivery truck trailer motorcycle evehicle custom1 custom2" speed="39.44" length="3.28" shape="1330.07,2257.18 1331.74,2254.36"/>
    </edge>
    <edge id=":1831131334_0" function="internal">
        <lane id=":1831131334_0_0" index="0" allow="private emergency authority army vip passenger hov taxi bus coach delivery truck trailer motorcycle evehicle custom1 custom2" speed="30.83" length="19.50" shape="2351.25,441.45 2354.05,435.70 2355.58,430.89 2356.44,426.74 2357.22,423.00"/>
    </edge>
    <edge id=":1831131334_1" function="internal">
        <lane id=":1831131334_1_0" index="0" allow="private emergency authority army vip passenger hov taxi bus coach delivery truck trailer motorcycle evehicle custom1 custom2" speed="39.44" length="19.50" shape="2351.25,441.45 2361.16,424.63"/>
        <lane id=":1831131334_1_1" index="1" allow="private emergency authority army vip passenger hov taxi bus coach delivery truck trailer motorcycle evehicle custom1 custom2" speed="39.44" length="19.50" shape="2354.03,443.04 2363.92,426.25"/>
        <lane id=":1831131334_1_2" index="2" allow="private emergency authority army vip passenger hov taxi bus coach delivery truck trailer motorcycle evehicle custom1 custom2" speed="39.44" length="19.50" shape="2356.80,444.64 2366.68,427.86"/>
    </edge>
    <edge id=":22067184-AddedOffRampNode_0" function="internal">
        <lane id=":22067184-AddedOffRampNode_0_0" index="0" allow="private emergency authority army vip passenger hov taxi bus coach delivery truck trailer motorcycle evehicle custom1 custom2" speed="22.22" length="8.40" shape="414.03,3819.21 414.14,3816.70 413.44,3814.94 412.75,3813.18 412.86,3810.67"/>
        <lane id=":22067184-AddedOffRampNode_0_1" index="1" allow="private emergency authority army vip passenger hov taxi bus coach delivery truck trailer motorcycle evehicle custom1 custom2" speed="22.22" length="8.40" shape="414.03,3819.21 415.96,3811.45"/>
    </edge>
    <edge id=":22270616#3-AddedOffRampNode_0" function="internal">
        <lane id=":22270616#3-AddedOffRampNode_0_0" index="0" allow="private emergency authority army vip passenger hov taxi bus coach delivery truck trailer motorcycle evehicle custom1 custom2" speed="39.44" length="8.20" shape="1783.19,3496.95 1785.63,3496.36 1787.13,3495.20 1788.62,3494.05 1791.07,3493.46"/>
        <lane id=":22270616#3-AddedOffRampNode_0_1" index="1" allow="private emergency authority army vip passenger hov taxi bus coach delivery truck trailer motorcycle evehicle custom1 custom2" speed="39.44" length="8.20" shape="1783.19,3496.95 1791.18,3496.65"/>
        <lane id=":22270616#3-AddedOffRampNode_0_2" index="2" allow="private emergency authority army vip passenger hov taxi bus coach delivery truck trailer motorcycle evehicle custom1 custom2" speed="39.44" length="8.20" shape="1783.31,3500.15 1791.30,3499.85"/>
        <lane id=":22270616#3-AddedOffRampNode_0_3" index="3" allow="private emergency authority army vip passenger hov taxi bus coach delivery truck trailer motorcycle evehicle custom1 custom2" speed="39.44" length="8.20" shape="1783.42,3503.34 1791.42,3503.05"/>
    </edge>
    <edge id=":22270616#3-AddedOnRampNode_0" function="internal">
        <lane id=":22270616#3-AddedOnRampNode_0_0" index="0" allow="private emergency authority army vip passenger hov taxi bus coach delivery truck trailer motorcycle evehicle custom1 custom2" speed="39.44" length="8.00" shape="1674.15,3500.96 1682.14,3500.67"/>
        <lane id=":22270616#3-AddedOnRampNode_0_1" index="1" allow="private emergency authority army vip passenger hov taxi bus coach delivery truck trailer motorcycle evehicle custom1 custom2" speed="39.44" length="8.00" shape="1674.27,3504.16 1682.26,3503.87"/>
        <lane id=":22270616#3-AddedOnRampNode_0_2" index="2" allow="private emergency authority army vip passenger hov taxi bus coach delivery truck trailer motorcycle evehicle custom1 custom2" speed="39.44" length="8.00" shape="1674.39,3507.36 1682.38,3507.06"/>
    </edge>
    <edge id=":2288037403_0" function="internal">
        <lane id=":2288037403_0_0" index="0" allow="private emergency authority army vip passenger hov taxi bus coach delivery truck trailer motorcycle evehicle custom1 custom2" speed="30.83" length="2.74" shape="2189.04,771.41 2187.72,773.82"/>
    </edge>
    <edge id=":2288037403_1" function="internal">
        <lane id=":2288037403_1_0" index="0" allow="private emergency authority army vip passenger hov taxi bus coach delivery truck trailer motorcycle evehicle custom1 custom2" speed="39.44" length="3.03" shape="2186.26,769.81 2184.82,772.31"/>
        <lane id=":2288037403_1_1" index="1" allow="private emergency authority army vip passenger hov taxi bus coach delivery truck trailer motorcycle evehicle custom1 custom2" speed="39.44" length="3.03" shape="2183.49,768.21 2181.98,770.83"/>
        <lane id=":2288037403_1_2" index="2" allow="private emergency authority army vip passenger hov taxi bus coach delivery truck trailer motorcycle evehicle custom1 custom2" speed="39.44" length="3.03" shape="2180.72,766.61 2179.13,769.35"/>
    </edge>
    <edge id=":23116014-AddedOffRampNode_0" function="internal">
        <lane id=":23116014-AddedOffRampNode_0_0" index="0" allow="private emergency authority army vip passenger hov taxi bus coach delivery truck trailer motorcycle evehicle custom1 custom2" speed="22.22" length="8.41" shape="861.07,3577.82 859.04,3579.25 858.15,3580.92 857.29,3582.65 855.33,3584.23"/>
        <lane id=":23116014-AddedOffRampNode_0_1" index="1" allow="private emergency authority army vip passenger hov taxi bus coach delivery truck trailer motorcycle evehicle custom1 custom2" speed="22.22" length="8.41" shape="861.07,3577.82 853.90,3581.37"/>
    </edge>
    <edge id=":237538919_0" function="internal">
        <lane id=":237538919_0_0" index="0" allow="private emergency authority army vip passenger hov taxi bus coach delivery truck trailer motorcycle evehicle custom1 custom2" speed="22.22" length="3.22" shape="429.82,3718.23 429.96,3717.29 430.03,3716.63 430.06,3715.98 430.07,3715.02"/>
    </edge>
    <edge id=":237538919_1" function="internal">
        <lane id=":237538919_1_0" index="0" allow="private emergency authority army vip passenger hov taxi bus coach delivery truck trailer motorcycle evehicle custom1 custom2" speed="22.22" length="3.15" shape="432.98,3718.71 433.51,3715.60"/>
    </edge>
    <edge id=":237538987_0" function="internal">
        <lane id=":237538987_0_0" index="0" allow="private emergency authority army vip passenger hov taxi bus coach delivery truck trailer motorcycle evehicle custom1 custom2" speed="30.83" length="7.00" shape="405.48,3837.61 406.88,3836.15 408.35,3835.52 409.65,3834.82 410.55,3833.15"/>
    </edge>
    <edge id=":237538987_1" function="internal">
        <lane id=":237538987_1_0" index="0" allow="private emergency authority army vip passenger hov taxi bus coach delivery truck trailer motorcycle evehicle custom1 custom2" speed="39.44" length="6.73" shape="405.48,3837.61 408.48,3832.59"/>
        <lane id=":237538987_1_1" index="1" allow="private emergency authority army vip passenger hov taxi bus coach delivery truck trailer motorcycle evehicle custom1 custom2" speed="39.44" length="6.73" shape="408.23,3839.24 411.69,3833.47"/>
        <lane id=":237538987_1_2" index="2" allow="private emergency authority army vip passenger hov taxi bus coach delivery truck trailer motorcycle evehicle custom1 custom2" speed="39.44" length="6.73" shape="410.99,3840.86 414.90,3834.34"/>
    </edge>
    <edge id=":237546286_0" function="internal">
        <lane id=":237546286_0_0" index="0" allow="private emergency authority army vip passenger hov taxi bus coach delivery truck trailer motorcycle evehicle custom1 custom2" speed="30.83" length="3.99" shape="2564.04,106.22 2562.74,109.99"/>