<?xml version="1.0" encoding="UTF-8"?>
<routes xmlns:xsi="http://www.w3.org/2001/XMLSchema-instance" xsi:noNamespaceSchemaLocation="http://sumo.dlr.de/xsd/routes_file.xsd">
    <vType
        id="vanetCar"
        accel="2.6"
        decel="4.5"
        sigma="0.2"
        length="5.0"
        minGap="2.5"
        maxSpeed="33.33"
        guiShape="passenger"
    />

    <route id="r0" edges="e0 e1 e2"/>
    <flow
        id="eastbound"
        type="vanetCar"
        route="r0"
        begin="0.0"
        end="40.0"
        vehsPerHour="7200"
        departLane="best"
        departSpeed="max"
    />
</routes>
